Circuit: *AE01.15.00.001_sim02.net

.step fcd=1000
.step fcd=101000
.step fcd=201000
.step fcd=301000
.step fcd=401000
.step fcd=501000
.step fcd=601000
.step fcd=701000
.step fcd=801000
.step fcd=901000
.step fcd=1.001e+006
.step fcd=1.101e+006
.step fcd=1.201e+006
.step fcd=1.301e+006
.step fcd=1.401e+006
.step fcd=1.501e+006
.step fcd=1.601e+006
.step fcd=1.701e+006
.step fcd=1.801e+006
.step fcd=1.901e+006
.step fcd=2.001e+006
.step fcd=2.101e+006
.step fcd=2.201e+006
.step fcd=2.301e+006
.step fcd=2.401e+006
.step fcd=2.501e+006
.step fcd=2.601e+006
.step fcd=2.701e+006
.step fcd=2.801e+006
.step fcd=2.901e+006
.step fcd=3.001e+006
.step fcd=3.101e+006
.step fcd=3.201e+006
.step fcd=3.301e+006
.step fcd=3.401e+006
.step fcd=3.501e+006
.step fcd=3.601e+006
.step fcd=3.701e+006
.step fcd=3.801e+006
.step fcd=3.901e+006
.step fcd=4.001e+006
.step fcd=4.101e+006
.step fcd=4.201e+006
.step fcd=4.301e+006
.step fcd=4.401e+006
.step fcd=4.501e+006
.step fcd=4.601e+006
.step fcd=4.701e+006
.step fcd=4.801e+006
.step fcd=4.901e+006
.step fcd=5.001e+006
.step fcd=5.101e+006
.step fcd=5.201e+006
.step fcd=5.301e+006
.step fcd=5.401e+006
.step fcd=5.501e+006
.step fcd=5.601e+006
.step fcd=5.701e+006
.step fcd=5.801e+006
.step fcd=5.901e+006
.step fcd=6.001e+006
.step fcd=6.101e+006
.step fcd=6.201e+006
.step fcd=6.301e+006
.step fcd=6.401e+006
.step fcd=6.501e+006
.step fcd=6.601e+006
.step fcd=6.701e+006
.step fcd=6.801e+006
.step fcd=6.901e+006
.step fcd=7.001e+006
.step fcd=7.101e+006
.step fcd=7.201e+006
.step fcd=7.301e+006
.step fcd=7.401e+006
.step fcd=7.501e+006
.step fcd=7.601e+006
.step fcd=7.701e+006
.step fcd=7.801e+006
.step fcd=7.901e+006
.step fcd=8.001e+006
.step fcd=8.101e+006
.step fcd=8.201e+006
.step fcd=8.301e+006
.step fcd=8.401e+006
.step fcd=8.501e+006
.step fcd=8.601e+006
.step fcd=8.701e+006
.step fcd=8.801e+006
.step fcd=8.901e+006
.step fcd=9.001e+006
.step fcd=9.101e+006
.step fcd=9.201e+006
.step fcd=9.301e+006
.step fcd=9.401e+006
.step fcd=9.501e+006
.step fcd=9.601e+006
.step fcd=9.701e+006
.step fcd=9.801e+006
.step fcd=9.901e+006
.step fcd=1e+007

Date: Fri Jan 14 18:00:30 2022
Total elapsed time: 1.704 seconds.

tnom = 27
temp = 27
method = trap
totiter = 0
traniter = 0
tranpoints = 0
accept = 0
rejected = 0
matrix size = 3
fillins = 1
solver = Normal

