Circuit: *AE01.15.00.001_sim01.net

.step rlpf=100 clpf=1e-008
.step rlpf=300 clpf=1e-008
.step rlpf=500 clpf=1e-008
.step rlpf=700 clpf=1e-008
.step rlpf=900 clpf=1e-008
.step rlpf=1000 clpf=1e-008
.step rlpf=100 clpf=2e-008
.step rlpf=300 clpf=2e-008
.step rlpf=500 clpf=2e-008
.step rlpf=700 clpf=2e-008
.step rlpf=900 clpf=2e-008
.step rlpf=1000 clpf=2e-008
.step rlpf=100 clpf=3e-008
.step rlpf=300 clpf=3e-008
.step rlpf=500 clpf=3e-008
.step rlpf=700 clpf=3e-008
.step rlpf=900 clpf=3e-008
.step rlpf=1000 clpf=3e-008
.step rlpf=100 clpf=4e-008
.step rlpf=300 clpf=4e-008
.step rlpf=500 clpf=4e-008
.step rlpf=700 clpf=4e-008
.step rlpf=900 clpf=4e-008
.step rlpf=1000 clpf=4e-008
.step rlpf=100 clpf=5e-008
.step rlpf=300 clpf=5e-008
.step rlpf=500 clpf=5e-008
.step rlpf=700 clpf=5e-008
.step rlpf=900 clpf=5e-008
.step rlpf=1000 clpf=5e-008


Measurement: fc_3db
  step	mag(v(/out))	at
     1	(-3.01021dB,0°)	159155
     2	(-3.01016dB,0°)	53051.6
     3	(-3.01018dB,0°)	31831
     4	(-3.01017dB,0°)	22736.4
     5	(-3.0102dB,0°)	17683.9
     6	(-3.01021dB,0°)	15915.5
     7	(-3.01026dB,0°)	79577.5
     8	(-3.01017dB,0°)	26525.8
     9	(-3.01021dB,0°)	15915.5
    10	(-3.01016dB,0°)	11368.2
    11	(-3.01017dB,0°)	8841.94
    12	(-3.01026dB,0°)	7957.75
    13	(-3.01016dB,0°)	53051.6
    14	(-3.0102dB,0°)	17683.9
    15	(-3.01016dB,0°)	10610.3
    16	(-3.01028dB,0°)	7578.81
    17	(-3.01027dB,0°)	5894.63
    18	(-3.01016dB,0°)	5305.16
    19	(-3.01029dB,0°)	39788.7
    20	(-3.01019dB,0°)	13262.9
    21	(-3.01026dB,0°)	7957.75
    22	(-3.01016dB,0°)	5684.11
    23	(-3.01016dB,0°)	4420.97
    24	(-3.01029dB,0°)	3978.87
    25	(-3.01018dB,0°)	31831
    26	(-3.01016dB,0°)	10610.3
    27	(-3.01016dB,0°)	6366.2
    28	(-3.0102dB,0°)	4547.28
    29	(-3.01023dB,0°)	3536.78
    30	(-3.01018dB,0°)	3183.1


Date: Fri Jan 14 17:58:50 2022
Total elapsed time: 0.257 seconds.

tnom = 27
temp = 27
method = trap
totiter = 0
traniter = 0
tranpoints = 0
accept = 0
rejected = 0
matrix size = 3
fillins = 0
solver = Normal

